data_stdin
_audit_creation_method 'critic2'
_cell_length_a        13.3747067810
_cell_length_b        13.3743475325
_cell_length_c        29.9675606535
_cell_angle_alpha        89.9730
_cell_angle_beta        90.0000
_cell_angle_gamma       120.0009
_cell_volume          4642.318630
_space_group_crystal_system monoclinic
_space_group_IT_number 8
_space_group_name_H-M_alt 'Cm'
_space_group_name_Hall 'C -2y'
loop_
_space_group_symop_operation_xyz
  'x,y,z'
  '-3/4-x+y,y,z'
loop_
_atom_site_label
_atom_site_type_symbol
_atom_site_fract_x
_atom_site_fract_y
_atom_site_fract_z
Se     Se     0.08335103190784     0.16619417759434     0.94856994485557
Se     Se     0.08311248893036     0.41604371482642     0.94842684010307
Se     Se     0.08337405505406     0.66639531080320     0.94853032687403
Se     Se     0.08318095618280     0.91636289536561     0.94852424040443
Se     Se     0.33313498309414     0.41627100818827     0.94842956086499
Se     Se     0.33325736366447     0.66617321018674     0.94834322546633
Se     Se     0.33292278111798     0.91589608323515     0.94854108212894
Se     Se     0.58330856804271     0.16614284458266     0.94830202497718
Se     Se     0.58308956325306     0.91618008150615     0.94834780024017
Se     Se     0.83292591332170     0.41585281064340     0.94812284944784
Se     Se     0.16533664967004     0.08067230234009     0.05652331792297
Se     Se     0.16636752429939     0.33124167590689     0.05305782476295
Se     Se     0.16762554758381     0.58335135359986     0.05157138412413
Se     Se     0.16447739783244     0.83423692977504     0.05457953625511
Se     Se     0.41827797847794     0.08406551959451     0.05045314284134
Se     Se     0.41616995694528     0.58233890089056     0.05264736207923
Se     Se     0.41509334175417     0.83156720731689     0.05207771162938
Se     Se     0.66518383584082     0.08036670268165     0.05218855495196
Se     Se     0.66635453892577     0.33256658981042     0.05080261750731
Se     Se     0.91398410028638     0.57796724557277     0.04921418971728
Se     Se     0.07819495631352     0.17235842645403     0.16064102504461
Se     Se     0.08106738813507     0.41649331110436     0.15709433896250
Se     Se     0.08189967967079     0.66215975532551     0.15837378917173
Se     Se     0.07816003951097     0.90632106202192     0.15404176127004
Se     Se     0.33430254306258     0.41860612812515     0.15791299951152
Se     Se     0.33306448483236     0.66590142061333     0.15725565460941
Se     Se     0.33457718418839     0.91375372794888     0.15925737521128
Se     Se     0.58549513676340     0.16608042471958     0.15693381112399
Se     Se     0.58346115198647     0.91692325897296     0.15686753957791
Se     Se     0.83243725025804     0.41487548451608     0.15596662538405
Se     Se     0.16638356800659     0.08276613901317     0.84313373696164
Se     Se     0.16636748944362     0.33273614934791     0.84303278593810
Se     Se     0.16641183967593     0.58287149353666     0.84299228247512
Se     Se     0.16638270190382     0.83290173203953     0.84311827806974
Se     Se     0.41624776596147     0.08277670094467     0.84302965532017
Se     Se     0.41639475162059     0.58278849024118     0.84297314331921
Se     Se     0.41634373185434     0.83285218153543     0.84295108820609
Se     Se     0.66628004055489     0.08255911210978     0.84297853603515
Se     Se     0.66622150721123     0.33291698639357     0.84301144359811
Se     Se     0.91652128382879     0.58304161265759     0.84308503673930
V      V      0.99966493879758     0.99956392730162     0.89607679635325
V      V      0.99970034164737     0.24913936769181     0.89605373114727
V      V      0.99979831978437     0.49968288399177     0.89604460448240
V      V      0.99977411312425     0.74954822624851     0.89610248030174
V      V      0.24988285452733     0.24976570905467     0.89595472225702
V      V      0.24969643116695     0.49944163235902     0.89595335633007
V      V      0.24987610231898     0.74938176158641     0.89594578902475
V      V      0.49944026530010     0.99946498353344     0.89600704340082
V      V      0.49984619318097     0.74969238636193     0.89589774150257
V      V      0.74974458025840     0.24948916051681     0.89567308843684
V      V      0.99026397201765     0.00613188386927     0.10622928128395
V      V      0.99425791824340     0.25129850316187     0.10361815100197
V      V      0.00104135665164     0.50023002272465     0.10367607280554
V      V      0.98802676232313     0.72605352464627     0.10417901173222
V      V      0.25014386429460     0.25028772858921     0.10610017534911
V      V      0.24800597232482     0.49925897256400     0.10454772351911
V      V      0.24714756965580     0.74927125051097     0.10443574429683
V      V      0.49630112306509     0.99856022233524     0.10402494014068
V      V      0.50029300324512     0.75058600649025     0.10480541472742
V      V      0.74922213417213     0.24844426834425     0.10349730492931
Cr     Cr     0.16201753862527     0.07403507725055     0.19971274825048
