data_stdin
_audit_creation_method 'critic2'
_audit_creation_date 2023-4-24
_chemical_formula_sum 'Cr Se12 V6'
_cell_formula_units_Z 1
_cell_length_a         5.8495283342
_cell_length_b         5.8495283342
_cell_length_c        30.0000000000
_cell_angle_alpha        90.0000
_cell_angle_beta        90.0000
_cell_angle_gamma       120.0007
_cell_volume           888.976860
_space_group_crystal_system trigonal
_space_group_IT_number 162
_space_group_name_H-M_alt 'P-31m'
_space_group_name_Hall '-P 3 2'
loop_
_symmetry_equiv_pos_site_id
_symmetry_equiv_pos_as_xyz
 1 'x,y,z'
 2 '-2/3-x,-1/3-y,-z'
 3 '-y,x-y,z'
 4 '-2/3+y,-1/3-x+y,-z'
 5 '-x+y,-x,z'
 6 '-2/3+x-y,-1/3+x,-z'
 7 'x,x-y,-z'
 8 '-2/3-x,-1/3-x+y,z'
 9 '-y,-x,-z'
 10 '-2/3+y,-1/3+x,z'
 11 '-x+y,y,-z'
 12 '-2/3+x-y,-1/3-y,z'
loop_
_atom_site_label
_atom_site_type_symbol
_atom_site_fract_x
_atom_site_fract_y
_atom_site_fract_z
V      V      0.33333000541646     0.66667002441644     0.40109972427810
V      V      0.66667002436562     0.33333000533429     0.40342772292887
Cr     Cr     0.66667002436562     0.33333000533429     0.50168542066667
Se     Se     0.99760973186419     0.66429973551675     0.34981421699878
Se     Se     0.01093596783896     0.33334999050628     0.45373207143239
