data_stdin
_audit_creation_method 'critic2'
_audit_creation_date 2023-4-24
_chemical_formula_sum 'Cr Se6 V3'
_cell_formula_units_Z 2
_cell_length_a         5.9976233712
_cell_length_b         5.9976233711
_cell_length_c        30.4019985199
_cell_angle_alpha        90.0000
_cell_angle_beta        90.0000
_cell_angle_gamma       120.0000
_cell_volume           947.089770
_space_group_crystal_system triclinic
_space_group_IT_number 1
_space_group_name_H-M_alt 'P 1'
_space_group_name_Hall 'P 1'
loop_
_symmetry_equiv_pos_site_id
_symmetry_equiv_pos_as_xyz
 1 'x,y,z'
loop_
_atom_site_label
_atom_site_type_symbol
_atom_site_fract_x
_atom_site_fract_y
_atom_site_fract_z
V      V      0.33333334300000     0.66666668700000     0.29998554048791
V      V      0.66666662700000     0.33333331300000     0.10001442051209
V      V      0.33333331300000     0.66666662700000     0.10001442051209
V      V      0.66666668700000     0.33333334300000     0.29998554048791
V      V      0.00000000000000     0.00000000000000     0.29867693685971
V      V      0.00000000000000     0.00000000000000     0.10132305414029
Cr     Cr     0.33333334300000     0.66666668700000     0.20000000300000
Cr     Cr     0.66666662700000     0.33333331300000     0.20000000300000
Se     Se     0.67120355094383     0.00000000000000     0.24801629981507
Se     Se     0.32879647905617     0.00000000000000     0.15198369118493
Se     Se     0.00000000000000     0.67120355094383     0.24801629981507
Se     Se     0.00000000000000     0.32879647905617     0.15198369118493
Se     Se     0.32879647905617     0.32879647905617     0.24801629981507
Se     Se     0.67120355094383     0.67120355094383     0.15198369118493
Se     Se     0.66433256359318     0.00000000000000     0.05070812556839
Se     Se     0.33566743640682     0.00000000000000     0.34929186243161
Se     Se     0.00000000000000     0.66433256359318     0.05070812556839
Se     Se     0.00000000000000     0.33566743640682     0.34929186243161
Se     Se     0.33566743640682     0.33566743640682     0.05070812556839
Se     Se     0.66433256359318     0.66433256359318     0.34929186243161
