data_stdin
_audit_creation_method 'critic2'
_audit_creation_date 2023-4-24
_chemical_formula_sum 'Cr3 Se16 V8'
_cell_formula_units_Z 1
_cell_length_a         7.1058235168
_cell_length_b         7.1058235169
_cell_length_c        30.4019985199
_cell_angle_alpha        90.0000
_cell_angle_beta        90.0000
_cell_angle_gamma       120.0000
_cell_volume          1329.418034
_space_group_crystal_system triclinic
_space_group_IT_number 1
_space_group_name_H-M_alt 'P 1'
_space_group_name_Hall 'P 1'
loop_
_symmetry_equiv_pos_site_id
_symmetry_equiv_pos_as_xyz
 1 'x,y,z'
loop_
_atom_site_label
_atom_site_type_symbol
_atom_site_fract_x
_atom_site_fract_y
_atom_site_fract_z
V      V      0.48003399400000     0.51996600600000     0.10301686800000
V      V      0.51996600600000     0.48003399400000     0.29698309300000
V      V      0.48003399400000     0.96006798700000     0.10301686800000
V      V      0.51996600600000     0.03993202400000     0.29698309300000
V      V      0.03993202400000     0.51996600600000     0.10301686800000
V      V      0.96006798700000     0.48003399400000     0.29698309300000
V      V      0.00000000000000     0.00000000000000     0.09682162100000
V      V      0.00000000000000     0.00000000000000     0.30317834000000
Cr     Cr     0.50000000000000     0.00000000000000     0.20000000300000
Cr     Cr     0.00000000000000     0.50000000000000     0.20000000300000
Cr     Cr     0.50000000000000     0.50000000000000     0.20000000300000
Se     Se     0.16255663300000     0.83744335200000     0.15382714600000
Se     Se     0.83744335200000     0.16255664800000     0.24617287500000
Se     Se     0.16255664800000     0.32511329700000     0.15382714600000
Se     Se     0.83744335200000     0.67488670300000     0.24617287500000
Se     Se     0.67488670300000     0.83744335200000     0.15382714600000
Se     Se     0.32511329700000     0.16255663300000     0.24617287500000
Se     Se     0.33333334300000     0.66666668700000     0.25007188300000
Se     Se     0.66666662700000     0.33333331300000     0.14992810800000
Se     Se     0.17012944800000     0.82987052200000     0.34236750000000
Se     Se     0.82987052200000     0.17012946300000     0.05763251700000
Se     Se     0.17012946300000     0.34025892600000     0.34236750000000
Se     Se     0.82987052200000     0.65974110400000     0.05763251700000
Se     Se     0.65974110400000     0.82987052200000     0.34236750000000
Se     Se     0.34025892600000     0.17012944800000     0.05763251700000
Se     Se     0.33333334300000     0.66666668700000     0.04857624700000
Se     Se     0.66666662700000     0.33333331300000     0.35142374000000
