data_stdin
_audit_creation_method 'critic2'
_cell_length_a        13.3071203232
_cell_length_b        13.3071203232
_cell_length_c        30.0000000000
_cell_angle_alpha        90.0000
_cell_angle_beta        90.0000
_cell_angle_gamma       120.0000
_cell_volume          4600.659099
_space_group_crystal_system triclinic
_space_group_IT_number 1
_space_group_name_H-M_alt 'P1'
_space_group_name_Hall 'P 1'
loop_
_space_group_symop_operation_xyz
  'x,y,z'
loop_
_atom_site_label
_atom_site_type_symbol
_atom_site_fract_x
_atom_site_fract_y
_atom_site_fract_z
Se     Se     0.08929076081082     0.16321620252764     0.94776047296487
Se     Se     0.08875483048108     0.41392705118719     0.94716252052633
Se     Se     0.08807529102856     0.66407374100436     0.94656679075450
Se     Se     0.08876728571642     0.91409793314865     0.94722774075568
Se     Se     0.33840812188221     0.16367860851958     0.94708623236975
Se     Se     0.33850567555575     0.41394175213658     0.94710875015002
Se     Se     0.33840779903510     0.66383160474367     0.94630585407316
Se     Se     0.33816540099510     0.91340440567149     0.94629992312306
Se     Se     0.58807103769412     0.16324992029942     0.94634662085651
Se     Se     0.58810288170014     0.41432209936998     0.94660283641016
Se     Se     0.58845441756085     0.66398545278426     0.94700279025882
Se     Se     0.58796802018901     0.91327924037358     0.94644741074740
Se     Se     0.83916539651647     0.16316562751130     0.94775090533246
Se     Se     0.83817480152008     0.41416164936207     0.94659412995579
Se     Se     0.83846706205501     0.66405541568290     0.94692839676209
Se     Se     0.83889095505576     0.91329346448721     0.94753322755732
Se     Se     0.15893193450934     0.08597732102904     0.06832893672447
Se     Se     0.15848723518374     0.33720357404638     0.05041754625509
Se     Se     0.16529633783782     0.58897048412003     0.04470610840954
Se     Se     0.16661624094182     0.83871666459672     0.04938191480172
Se     Se     0.41522877341271     0.08625522043815     0.04631035196091
Se     Se     0.41366399353489     0.34020553964549     0.05057598943987
Se     Se     0.40988189585265     0.58972542643545     0.04626103001760
Se     Se     0.41223013272174     0.83482643100840     0.04522287396566
Se     Se     0.66145624932555     0.09058683483415     0.04543356465700
Se     Se     0.65473007056379     0.33016951209658     0.04558760884743
Se     Se     0.66046081338940     0.58574582645836     0.05208046673483
Se     Se     0.66219743340214     0.84525236975238     0.05005906157309
Se     Se     0.91628910266992     0.09267605846984     0.05518481092259
Se     Se     0.90732783660510     0.34314570358751     0.04699161585067
Se     Se     0.90700475352225     0.58409090811178     0.04964871533239
Se     Se     0.91183245323969     0.83404190756733     0.06084485536188
Se     Se     0.08559050314841     0.21257906465970     0.16333577969523
Se     Se     0.07927906681714     0.43070462435138     0.15514042057411
Se     Se     0.08856584708313     0.66145349503835     0.15776538857450
Se     Se     0.09654102515287     0.89316813748189     0.16850545365721
Se     Se     0.33432007334071     0.16901342558025     0.15626203901835
Se     Se     0.33188957637249     0.43497256506532     0.15773047698641
Se     Se     0.32908752953627     0.67081738908525     0.15654948031199
Se     Se     0.34031771578339     0.91393724928610     0.15722258252536
Se     Se     0.57858605986015     0.16506476565791     0.15544808236159
Se     Se     0.57159437672299     0.41644312102031     0.15294921825960
Se     Se     0.56513948462387     0.66878239776540     0.15763938487512
Se     Se     0.57764094235577     0.91956829402635     0.15322216567599
Se     Se     0.82672435077331     0.17927395739530     0.15648351219399
Se     Se     0.82842521327097     0.41666375527628     0.15332117996421
Se     Se     0.81908461533140     0.65223896696238     0.15495509609041
Se     Se     0.80838446312882     0.92569603202990     0.16030189648779
Se     Se     0.17227320913022     0.08120973007771     0.84157443619255
Se     Se     0.17215839951956     0.33076428401579     0.84177254342103
Se     Se     0.17163375220035     0.58014948848664     0.84135468863470
Se     Se     0.17204960469687     0.83086415318032     0.84120401274421
Se     Se     0.42219645579117     0.08114636738416     0.84132034787960
Se     Se     0.42212088609625     0.33093764713470     0.84148059526802
Se     Se     0.42191596274551     0.58074101644113     0.84127756669514
Se     Se     0.42220018385730     0.83075695075308     0.84102080697822
Se     Se     0.67286994398493     0.08077632190274     0.84173483851888
Se     Se     0.67268422837750     0.33050204934267     0.84174274080097
Se     Se     0.67210588349050     0.58108782099653     0.84140928664116
Se     Se     0.67244746711619     0.83126757019131     0.84152872820619
Se     Se     0.92260905082131     0.08108759816797     0.84193725254372
Se     Se     0.92221696961785     0.32963388271079     0.84205652520971
Se     Se     0.92215547032012     0.58077400672927     0.84155152137997
Se     Se     0.92223028676262     0.83126182605559     0.84152586605383
V      V      0.00553493944669     0.99745032079278     0.89471026279540
V      V      0.00580317754222     0.24627726096411     0.89530426573233
V      V      0.00536286201304     0.49656267400818     0.89458650386786
V      V      0.00529933175009     0.74786238476507     0.89432368886822
V      V      0.25491393280719     0.99696686166703     0.89428783869433
V      V      0.25527150829782     0.24750764656189     0.89466205675235
V      V      0.25529723919173     0.49722981122813     0.89458063676419
V      V      0.25494429072055     0.74684601971677     0.89417146413826
V      V      0.50518341128265     0.99688589626956     0.89410586914298
V      V      0.50497856127018     0.24741434402210     0.89454230300119
V      V      0.50479520329318     0.49726290846577     0.89435956029632
V      V      0.50525194498530     0.74679713375918     0.89422255712077
V      V      0.75600413613071     0.99685868476801     0.89498552811044
V      V      0.75568626162971     0.24683544039806     0.89499100696065
V      V      0.75505933315381     0.49755682368037     0.89435839526609
V      V      0.75515222005663     0.74734462963119     0.89446357908933
V      V      0.91545002770000     0.84577056629216     0.13627098424055
V      V      0.98492717884923     0.27250954682000     0.10092383155725
V      V      0.00933862815781     0.51487238135361     0.09880185459645
V      V      0.01455374993571     0.73268896373363     0.10248821423634
V      V      0.27574563202082     0.99503455645017     0.10189767930168
V      V      0.26467807357615     0.29014364946327     0.10214069624905
V      V      0.24254115476831     0.51065689797730     0.10059132263210
V      V      0.25274266346574     0.74903478975807     0.10055420733757
V      V      0.49542985413552     0.99470935951465     0.09967182760148
V      V      0.50129518199875     0.24491844239525     0.10257471411655
V      V      0.48814382945744     0.51770009517254     0.10061100244752
V      V      0.48267851925271     0.75225772704846     0.10055287244502
V      V      0.75247237964404     0.03009216925310     0.09969099100060
V      V      0.73624223713577     0.24891010073300     0.10046691019637
V      V      0.72993357723534     0.47379412614144     0.10243281489096
V      V      0.71027222406211     0.74511292823308     0.10191811383272
Cr     Cr     0.13020009209967     0.07752295371967     0.14510029061699
