data_stdin
_audit_creation_method 'critic2'
_audit_creation_date 2023-4-24
_chemical_formula_sum 'Cr Se64 V32'
_cell_formula_units_Z 1
_cell_length_a        13.2987005764
_cell_length_b        13.2987005764
_cell_length_c        30.0000000000
_cell_angle_alpha        90.0000
_cell_angle_beta        90.0000
_cell_angle_gamma       120.0000
_cell_volume          4594.839038
_space_group_crystal_system monoclinic
_space_group_IT_number 5
_space_group_name_H-M_alt 'C2'
_space_group_name_Hall 'C 2y'
loop_
_symmetry_equiv_pos_site_id
_symmetry_equiv_pos_as_xyz
 1 'x,y,z'
 2 'x-y,-y,-z'
loop_
_atom_site_label
_atom_site_type_symbol
_atom_site_fract_x
_atom_site_fract_y
_atom_site_fract_z
Se     Se     0.08508212494618     0.16831224865624     0.94531569173083
Se     Se     0.08361628658209     0.41771102059894     0.94329456200125
Se     Se     0.08495280402415     0.66555064005115     0.94382906983007
Se     Se     0.08603371102558     0.91586610893095     0.94569456412196
Se     Se     0.34459470671331     0.17357439012947     0.95412771577448
Se     Se     0.34121298589996     0.42165814231986     0.95371476054304
Se     Se     0.33929905356290     0.66952514049628     0.95236978795499
Se     Se     0.34314289072542     0.92052279825433     0.95197961087347
Se     Se     0.58280375272168     0.16679461786401     0.95069515379313
Se     Se     0.58509253561985     0.42135803191148     0.95437606763856
Se     Se     0.58171583639031     0.66585316229228     0.95456619208026
Se     Se     0.58178844908558     0.91412988313562     0.95283526172229
Se     Se     0.82376039830128     0.16345755531370     0.95094712706180
Se     Se     0.82639631333922     0.41366414878738     0.95074989119345
Se     Se     0.82565196664352     0.66280678674514     0.95423043120432
Se     Se     0.81923053813628     0.90851809587196     0.95511923059311
Se     Se     0.08063043265610     0.16916537364564     0.15506823852027
Se     Se     0.08209904290418     0.41339263318422     0.15664744251441
Se     Se     0.08567372001877     0.65947688178235     0.15573971668905
Se     Se     0.08225698800167     0.91725342202030     0.14503925965106
Se     Se     0.32928986374718     0.16365186924838     0.14549153384220
Se     Se     0.32898863167854     0.41785041517991     0.15692640371027
Se     Se     0.33080244726709     0.66160559623462     0.15655432642476
Se     Se     0.33786454231482     0.90892314206287     0.15472624586627
Se     Se     0.59002104683004     0.16384283516006     0.15656117176385
Se     Se     0.58460375914986     0.41592509879995     0.14898339961308
Se     Se     0.58014600414267     0.66875108356103     0.15741981858135
Se     Se     0.58730423208318     0.91727953536891     0.15662200256708
Se     Se     0.83679644530495     0.16772098389762     0.15664363432848
Se     Se     0.83810188075633     0.41266928950838     0.15641064671271
Se     Se     0.83613051994564     0.66987608509899     0.14613396449670
Se     Se     0.83318969514153     0.92102889498894     0.15540658230066
V      V      0.97114087414869     0.98441278433565     0.90018037940916
V      V      0.97105534167236     0.23899081744128     0.89770507393914
V      V      0.97545660968024     0.48914745591964     0.89734621381295
V      V      0.97081004735344     0.73268176283145     0.89896008721348
V      V      0.28455582367306     0.01927310391424     0.89936453694968
V      V      0.28252592407205     0.26608596064325     0.90020611677094
V      V      0.27671271893779     0.51300215988238     0.89902560831685
V      V      0.27744115378715     0.76302535446464     0.89843305765799
V      V      0.51439410905579     0.99914227291409     0.89808296805096
V      V      0.51545929839457     0.26761846529193     0.89937382546893
V      V      0.51275426058337     0.51118893499957     0.89923339326148
V      V      0.51189242546849     0.75129012426567     0.89877965476707
V      V      0.74076301657141     0.98966191715378     0.89858928765066
V      V      0.73833844380923     0.24623488997299     0.89723841209381
V      V      0.74066120718026     0.50196657050289     0.89884227592768
V      V      0.73971467386087     0.74460219957152     0.89940727392509
Cr     Cr     0.00714063638851     0.00000000000000     0.00000000000000
